LTspice 24.0.9 for Windows
Circuit: * E:\Draft3.asc
Start Time: Thu Mar  7 20:42:35 2024
Warning: Multiple definitions of model "2scr375p" Type: BJT
Warning: Multiple definitions of model "bc857b" Type: BJT
Warning: Multiple definitions of model "bc847c" Type: BJT
Warning: Multiple definitions of model "bc847b" Type: BJT
solver = Normal
Maximum thread count: 8
tnom = 27
temp = 27
method = modified trap
Limiting rise time of source v1 to 2e-07
Limiting fall time of source v1 to 2e-07
Direct Newton iteration for .op point succeeded.
Total elapsed time: 0.224 seconds.

